* full_adder with Transient Analysis and Measure

* include the MOSFET models
.include 'ami05.sp'

* our supplies are global to the hierarchy
.global vdd gnd
.param supply_voltage=3.3V
* set the operating temperature
.option temp=20


.subckt ADDER vdd gnd CO SO A B C
MC A+B C! CO vdd pfet W=1u L=0.6u M=1
M1 CO C A+B gnd nfet w=1u l=0.6u m=1
MD A*B C CO vdd pfet W=1u L=0.6u M=1
M2 CO C! A*B gnd nfet w=1u l=0.6u m=1
ME AXORB! C! SO vdd pfet W=1u L=0.6u M=1
M3 SO C AXORB! gnd nfet w=1u l=0.6u m=1
MF AXORB C SO vdd pfet W=1u L=0.6u M=1
M4 SO C! AXORB gnd nfet w=1u l=0.6u m=1
M5 Vdd B! A+B vdd pfet W=1u L=0.6u M=1
MG A+B A! B gnd nfet w=1u l=0.6u m=1
M6 A B A+B vdd pfet W=1u L=0.6u M=1
MH A*B A! GND gnd nfet w=1u l=0.6u m=1
MI A*B A B gnd nfet w=1u l=0.6u m=1
M7 A B! A*B vdd pfet W=1u L=0.6u M=1
MJ AXORB! B! A! gnd nfet w=1u l=0.6u m=1
M8 B! A AXORB! vdd pfet W=1u L=0.6u M=1
MK AXORB! B A gnd nfet w=1u l=0.6u m=1
M9 B A! AXORB! vdd pfet W=1u L=0.6u M=1
ML AXORB A B gnd nfet w=1u l=0.6u m=1
M10 A! B! AXORB vdd pfet W=1u L=0.6u M=1
MM AXORB A B! gnd nfet w=1u l=0.6u m=1
M11 AXORB B A vdd pfet W=1u L=0.6u M=1
MN C! C GND gnd nfet w=1u l=0.6u m=1
MO C! C Vdd vdd pfet W=1u L=0.6u M=1
MP B! B GND gnd nfet w=1u l=0.6u m=1
MQ B! B Vdd vdd pfet W=1u L=0.6u M=1
MR A! A GND gnd nfet w=1u l=0.6u m=1
MS A! A Vdd vdd pfet W=1u L=0.6u M=1
.ends


X1  99 0 1  2  3  4  5 ADDER
VCC   99  0   DC supply_voltage
VIN1A  3  0   3.3
VIN1B  4  0   0
VIN1C  5  0   0
C1 1 0 25f
C2 2 0 25f

* define the supply voltages
VDD vdd 0 supply_voltage


* perform a 250ps transient analysis
.tran 10ns 50ns

.END

